Circuit: * C:\Users\madha\Desktop\Audio-Amplifier\audio_amplifier.asc

Warning: Multiple definitions of model "2scr375p" Type: BJT
Warning: Multiple definitions of model "bc857b" Type: BJT
Warning: Multiple definitions of model "bc847c" Type: BJT
Warning: Multiple definitions of model "bc847b" Type: BJT
WARNING: Less than two connections to node nc_01.  This node is used by q:u2:2.
Direct Newton iteration for .op point succeeded.

Date: Fri Jan 17 12:16:35 2025
Total elapsed time: 0.124 seconds.

tnom = 27
temp = 27
method = modified trap
totiter = 2233
traniter = 2214
tranpoints = 1047
accept = 1046
rejected = 1
matrix size = 96
fillins = 105
solver = Normal
Avg thread counts: 3.7/6.6/6.2/3.7
Matrix Compiler1: 11.17 KB object code size  2.1/1.0/[0.9]
Matrix Compiler2: 9.85 KB object code size  0.6/0.9/[0.3]

