Circuit: * C:\Users\madha\Desktop\Audio-Amplifier\audio_amplifier.asc

Warning: Multiple definitions of model "2scr375p" Type: BJT
Warning: Multiple definitions of model "bc857b" Type: BJT
Warning: Multiple definitions of model "bc847c" Type: BJT
Warning: Multiple definitions of model "bc847b" Type: BJT
WARNING: Less than two connections to node vin_inv.  This node is used by v5.
Direct Newton iteration for .op point succeeded.
N-Period=10
Fourier components of V(vout)
DC component:0.578091

Harmonic	Frequency	 Fourier 	Normalized	 Phase  	Normalized
 Number 	  [Hz]   	Component	 Component	[degree]	Phase [deg]
    1   	 1.000e+3	 6.342e-1	 1.000e+0	  -86.90°	    0.00°
    2   	 2.000e+3	 1.189e+0	 1.875e+0	    6.46°	   93.36°
    3   	 3.000e+3	 2.051e-1	 3.235e-1	  -80.91°	    5.99°
    4   	 4.000e+3	 2.770e+0	 4.368e+0	   12.73°	   99.63°
    5   	 5.000e+3	 3.797e+0	 5.987e+0	  105.79°	  192.69°
    6   	 6.000e+3	 2.262e+0	 3.566e+0	 -161.30°	  -74.40°
    7   	 7.000e+3	 6.958e-2	 1.097e-1	  -71.10°	   15.80°
    8   	 8.000e+3	 6.367e-1	 1.004e+0	 -155.69°	  -68.79°
    9   	 9.000e+3	 1.486e-2	 2.343e-2	  -86.84°	    0.06°
   10   	 1.000e+4	 4.108e-1	 6.477e-1	 -149.54°	  -62.64°
Partial Harmonic Distortion: 852.662311%
Total Harmonic Distortion:   600.102193%



Date: Thu Jan 23 23:28:42 2025
Total elapsed time: 0.110 seconds.

tnom = 27
temp = 27
method = modified trap
totiter = 2123
traniter = 2110
tranpoints = 1047
accept = 1045
rejected = 2
matrix size = 65
fillins = 57
solver = Normal
Avg thread counts: 3.8/6.6/6.6/3.8
Matrix Compiler1: 6.92 KB object code size  1.3/0.6/[0.6]
Matrix Compiler2: 6.44 KB object code size  0.4/0.6/[0.3]

