Circuit: * C:\Users\madha\Desktop\Audio-Amplifier\audio_amplifier.asc

Warning: Multiple definitions of model "2scr375p" Type: BJT
Warning: Multiple definitions of model "bc857b" Type: BJT
Warning: Multiple definitions of model "bc847c" Type: BJT
Warning: Multiple definitions of model "bc847b" Type: BJT
Direct Newton iteration for .op point succeeded.

Date: Fri Jan 17 10:18:52 2025
Total elapsed time: 0.120 seconds.

tnom = 27
temp = 27
method = trap
totiter = 13
traniter = 0
tranpoints = 0
accept = 0
rejected = 0
matrix size = 67
fillins = 59
solver = Normal
Avg thread counts: 16.0/0.0/16.0/16.0
Matrix Compiler1:     397 opcodes
Matrix Compiler2: 6.70 KB object code size
