Circuit: * C:\Users\madha\Desktop\Audio-Amplifier\audio_amplifier.asc

Warning: Multiple definitions of model "2scr375p" Type: BJT
Warning: Multiple definitions of model "bc857b" Type: BJT
Warning: Multiple definitions of model "bc847c" Type: BJT
Warning: Multiple definitions of model "bc847b" Type: BJT
WARNING: Node N008 is floating.
WARNING: Node N003 is floating.
WARNING: Node N006 is floating.
WARNING: Node NC_01 is floating.

WARNING: Less than two connections to node n003.  This node is used by c4.
WARNING: Less than two connections to node n006.  This node is used by c6.
WARNING: Less than two connections to node nc_01.  This node is used by c8.
Direct Newton iteration for .op point succeeded.

Date: Fri Jan 10 23:16:27 2025
Total elapsed time: 0.022 seconds.

tnom = 27
temp = 27
method = trap
totiter = 13
traniter = 0
tranpoints = 0
accept = 0
rejected = 0
matrix size = 55
fillins = 47
solver = Normal
Avg thread counts: 16.0/0.0/16.0/16.0
Matrix Compiler1:     310 opcodes
Matrix Compiler2: 5.30 KB object code size
