Circuit: * C:\Users\madha\Desktop\Audio-Amplifier\audio_amplifier.asc

Warning: Multiple definitions of model "2scr375p" Type: BJT
Warning: Multiple definitions of model "bc857b" Type: BJT
Warning: Multiple definitions of model "bc847c" Type: BJT
Warning: Multiple definitions of model "bc847b" Type: BJT
WARNING: Node N008 is floating.
WARNING: Node NC_01 is floating.

WARNING: Less than two connections to node nc_01.  This node is used by c6.
Direct Newton iteration for .op point succeeded.

Date: Sat Jan 11 02:05:38 2025
Total elapsed time: 0.319 seconds.

tnom = 27
temp = 27
method = modified trap
totiter = 2306
traniter = 2293
tranpoints = 1060
accept = 1054
rejected = 6
matrix size = 65
fillins = 61
solver = Normal
Avg thread counts: 3.6/6.6/6.6/3.6
Matrix Compiler1: 7.14 KB object code size  5.0/4.2/[1.4]
Matrix Compiler2: 6.58 KB object code size  2.3/3.7/[1.3]

