Circuit: * C:\Users\madha\Desktop\Audio-Amplifier\audio_amplifier.asc

Warning: Multiple definitions of model "2scr375p" Type: BJT
Warning: Multiple definitions of model "bc857b" Type: BJT
Warning: Multiple definitions of model "bc847c" Type: BJT
Warning: Multiple definitions of model "bc847b" Type: BJT
WARNING: Node N011 is floating.
WARNING: Node NC_01 is floating.

WARNING: Less than two connections to node nc_01.  This node is used by c6.
Direct Newton iteration for .op point succeeded.

Date: Sat Jan 11 17:51:43 2025
Total elapsed time: 0.098 seconds.

tnom = 27
temp = 27
method = modified trap
totiter = 2200
traniter = 2187
tranpoints = 1063
accept = 1055
rejected = 8
matrix size = 71
fillins = 61
solver = Normal
Avg thread counts: 3.7/6.5/6.5/3.7
Matrix Compiler1: 7.28 KB object code size  1.1/0.7/[0.5]
Matrix Compiler2: 6.92 KB object code size  0.4/0.7/[0.3]

