Circuit: * C:\Users\madha\Desktop\Audio-Amplifier\audio_amplifier.asc

Warning: Multiple definitions of model "2scr375p" Type: BJT
Warning: Multiple definitions of model "bc857b" Type: BJT
Warning: Multiple definitions of model "bc847c" Type: BJT
Warning: Multiple definitions of model "bc847b" Type: BJT
Direct Newton iteration for .op point succeeded.
Note: .fourier statements are only valid with a .tran command.
      No Fourier analysis performed.


Date: Fri Jan 17 16:35:21 2025
Total elapsed time: 0.045 seconds.

tnom = 27
temp = 27
method = trap
totiter = 13
traniter = 0
tranpoints = 0
accept = 0
rejected = 0
matrix size = 66
fillins = 57
solver = Normal
Avg thread counts: 16.0/0.0/16.0/16.0
Matrix Compiler1:     390 opcodes
Matrix Compiler2: 6.60 KB object code size
