Circuit: * C:\Users\madha\Desktop\Audio-Amplifier\audio_amplifier.asc

Warning: Multiple definitions of model "2scr375p" Type: BJT
Warning: Multiple definitions of model "bc857b" Type: BJT
Warning: Multiple definitions of model "bc847c" Type: BJT
Warning: Multiple definitions of model "bc847b" Type: BJT
WARNING: Less than two connections to node vin_inv.  This node is used by v5.
Direct Newton iteration for .op point succeeded.
N-Period=10
Fourier components of V(vout)
DC component:0.458801

Harmonic	Frequency	 Fourier 	Normalized	 Phase  	Normalized
 Number 	  [Hz]   	Component	 Component	[degree]	Phase [deg]
    1   	 1.000e+3	 6.202e-1	 1.000e+0	  -87.17°	    0.00°
    2   	 2.000e+3	 1.163e+0	 1.875e+0	    6.19°	   93.36°
    3   	 3.000e+3	 2.010e-1	 3.240e-1	  -81.70°	    5.47°
    4   	 4.000e+3	 2.709e+0	 4.368e+0	   12.21°	   99.38°
    5   	 5.000e+3	 3.713e+0	 5.987e+0	  105.19°	  192.35°
    6   	 6.000e+3	 2.212e+0	 3.567e+0	 -162.03°	  -74.86°
    7   	 7.000e+3	 6.875e-2	 1.108e-1	  -72.75°	   14.42°
    8   	 8.000e+3	 6.226e-1	 1.004e+0	 -156.59°	  -69.43°
    9   	 9.000e+3	 1.545e-2	 2.491e-2	  -88.74°	   -1.57°
   10   	 1.000e+4	 4.014e-1	 6.472e-1	 -150.72°	  -63.55°
Partial Harmonic Distortion: 852.684459%
Total Harmonic Distortion:   600.109942%



Date: Sat Jan 25 17:07:53 2025
Total elapsed time: 0.326 seconds.

tnom = 27
temp = 27
method = modified trap
totiter = 2116
traniter = 2103
tranpoints = 1047
accept = 1045
rejected = 2
matrix size = 65
fillins = 57
solver = Normal
Avg thread counts: 3.8/6.6/6.6/3.8
Matrix Compiler1: 6.92 KB object code size  2.4/2.3/[1.0]
Matrix Compiler2: 6.44 KB object code size  1.6/2.3/[0.9]

