Circuit: * C:\Users\madha\Desktop\Audio-Amplifier\audio_amplifier.asc

Warning: Multiple definitions of model "2scr375p" Type: BJT
Warning: Multiple definitions of model "bc857b" Type: BJT
Warning: Multiple definitions of model "bc847c" Type: BJT
Warning: Multiple definitions of model "bc847b" Type: BJT
WARNING: Node N008 is floating.
WARNING: Node N006 is floating.
WARNING: Node N003 is floating.

WARNING: Less than two connections to node n008.  This node is used by c1.
WARNING: Less than two connections to node n006.  This node is used by c2.
WARNING: Less than two connections to node n003.  This node is used by c4.
Direct Newton iteration for .op point succeeded.

Date: Thu Jan  9 22:10:57 2025
Total elapsed time: 0.111 seconds.

tnom = 27
temp = 27
method = modified trap
totiter = 2101
traniter = 2082
tranpoints = 1042
accept = 1042
rejected = 0
matrix size = 52
fillins = 53
solver = Normal
Avg thread counts: 3.8/6.7/6.7/3.8
Matrix Compiler1: 5.41 KB object code size  1.0/0.5/[0.5]
Matrix Compiler2: 5.11 KB object code size  0.3/0.4/[0.3]

