Circuit: * C:\Users\madha\Desktop\Audio-Amplifier\audio_amplifier.asc

Warning: Multiple definitions of model "2scr375p" Type: BJT
Warning: Multiple definitions of model "bc857b" Type: BJT
Warning: Multiple definitions of model "bc847c" Type: BJT
Warning: Multiple definitions of model "bc847b" Type: BJT
WARNING: Less than two connections to node vin_inv.  This node is used by v5.
Direct Newton iteration for .op point succeeded.
N-Period=10
Fourier components of V(vout)
DC component:0.573468

Harmonic	Frequency	 Fourier 	Normalized	 Phase  	Normalized
 Number 	  [Hz]   	Component	 Component	[degree]	Phase [deg]
    1   	 1.000e+3	 6.353e-1	 1.000e+0	  -86.91°	    0.00°
    2   	 2.000e+3	 1.191e+0	 1.875e+0	    6.44°	   93.36°
    3   	 3.000e+3	 2.058e-1	 3.239e-1	  -80.83°	    6.08°
    4   	 4.000e+3	 2.775e+0	 4.367e+0	   12.73°	   99.65°
    5   	 5.000e+3	 3.803e+0	 5.985e+0	  105.80°	  192.71°
    6   	 6.000e+3	 2.265e+0	 3.566e+0	 -161.29°	  -74.37°
    7   	 7.000e+3	 7.100e-2	 1.118e-1	  -70.89°	   16.02°
    8   	 8.000e+3	 6.377e-1	 1.004e+0	 -155.66°	  -68.75°
    9   	 9.000e+3	 1.913e-2	 3.011e-2	  -81.81°	    5.10°
   10   	 1.000e+4	 4.040e-1	 6.359e-1	 -149.37°	  -62.46°
Partial Harmonic Distortion: 852.381132%
Total Harmonic Distortion:   599.892388%



Date: Wed Jan 22 15:50:12 2025
Total elapsed time: 0.114 seconds.

tnom = 27
temp = 27
method = modified trap
totiter = 2133
traniter = 2120
tranpoints = 1047
accept = 1045
rejected = 2
matrix size = 65
fillins = 57
solver = Normal
Avg thread counts: 3.8/6.6/6.6/3.8
Matrix Compiler1: 6.92 KB object code size  1.2/0.7/[0.6]
Matrix Compiler2: 6.44 KB object code size  0.4/0.6/[0.3]

