Circuit: * C:\Users\madha\Desktop\Audio-Amplifier\audio_amplifier.asc

Warning: Multiple definitions of model "2scr375p" Type: BJT
Warning: Multiple definitions of model "bc857b" Type: BJT
Warning: Multiple definitions of model "bc847c" Type: BJT
Warning: Multiple definitions of model "bc847b" Type: BJT
Direct Newton iteration for .op point succeeded.

Date: Tue Jan 14 22:22:48 2025
Total elapsed time: 0.096 seconds.

tnom = 27
temp = 27
method = modified trap
totiter = 2125
traniter = 2112
tranpoints = 1052
accept = 1048
rejected = 4
matrix size = 67
fillins = 59
solver = Normal
Avg thread counts: 3.8/6.6/6.6/3.8
Matrix Compiler1: 7.17 KB object code size  1.1/0.6/[0.5]
Matrix Compiler2: 6.69 KB object code size  0.4/0.6/[0.3]

