Circuit: * C:\Users\madha\Desktop\Audio-Amplifier\filter.asc

Direct Newton iteration for .op point succeeded.

Date: Tue Jan  7 23:53:18 2025
Total elapsed time: 0.038 seconds.

tnom = 27
temp = 27
method = trap
totiter = 13
traniter = 0
tranpoints = 0
accept = 0
rejected = 0
matrix size = 32
fillins = 45
solver = Normal
Avg thread counts: 16.0/0.0/16.0/16.0
Matrix Compiler1:     217 opcodes
Matrix Compiler2: 3.32 KB object code size
