LTspice 24.0.11 for Windows
Circuit: * C:\Users\HP\OneDrive\Pictures\Documents\Desktop\Audio-Amplifier\gain.asc
Start Time: Tue Jan  7 11:46:58 2025
solver = Normal
Maximum thread count: 16
tnom = 27
temp = 27
method = modified trap
Direct Newton iteration for .op point succeeded.
Total elapsed time: 0.048 seconds.

