Circuit: * C:\Users\madha\Desktop\Audio-Amplifier\gain.asc

Warning: Multiple definitions of model "2scr375p" Type: BJT
Warning: Multiple definitions of model "bc857b" Type: BJT
Warning: Multiple definitions of model "bc847c" Type: BJT
Warning: Multiple definitions of model "bc847b" Type: BJT
WARNING: Node NC_01 is floating.

WARNING: Less than two connections to node nc_01.  This node is used by c3.
Direct Newton iteration for .op point succeeded.

Date: Wed Jan  8 00:53:30 2025
Total elapsed time: 0.209 seconds.

tnom = 27
temp = 27
method = modified trap
totiter = 2096
traniter = 2087
tranpoints = 1042
accept = 1042
rejected = 0
matrix size = 11
fillins = 0
solver = Normal
Avg thread counts: 3.8/6.7/6.7/3.8
Matrix Compiler1: 628 bytes object code size  0.7/0.4/[0.3]
Matrix Compiler2: 835 bytes object code size  0.4/2.4/[0.3]

