Circuit: * C:\Users\madha\Desktop\Audio-Amplifier\hardware_sim.asc

Warning: Multiple definitions of model "2scr375p" Type: BJT
Warning: Multiple definitions of model "bc857b" Type: BJT
Warning: Multiple definitions of model "bc847c" Type: BJT
Warning: Multiple definitions of model "bc847b" Type: BJT
WARNING: Node NC_01 is floating.
WARNING: Node NC_02 is floating.

WARNING: Less than two connections to node nc_01.  This node is used by c1.
WARNING: Less than two connections to node vin_inv.  This node is used by v4.
WARNING: Less than two connections to node nc_02.  This node is used by c2.
Direct Newton iteration for .op point succeeded.
.fourier quantity "V(vout)" not pressent in data.


Date: Tue Jan 21 12:57:11 2025
Total elapsed time: 0.153 seconds.

tnom = 27
temp = 27
method = modified trap
totiter = 9340
traniter = 9332
tranpoints = 4217
accept = 2818
rejected = 1399
matrix size = 29
fillins = 4
solver = Normal
Avg thread counts: 1.6/2.4/2.4/1.6
Matrix Compiler1: 1.57 KB object code size  0.4/0.3/[0.2]
Matrix Compiler2: 2.29 KB object code size  0.2/0.3/[0.1]

