Circuit: * C:\Users\madha\Desktop\Audio-Amplifier\hardware_sim.asc

Warning: Multiple definitions of model "2scr375p" Type: BJT
Warning: Multiple definitions of model "bc857b" Type: BJT
Warning: Multiple definitions of model "bc847c" Type: BJT
Warning: Multiple definitions of model "bc847b" Type: BJT
WARNING: Node NC_01 is floating.

WARNING: Less than two connections to node vin_inv.  This node is used by v4.
WARNING: Less than two connections to node nc_01.  This node is used by c2.
Direct Newton iteration for .op point succeeded.
.fourier quantity "V(vout)" not pressent in data.


Date: Fri Jan 24 12:16:45 2025
Total elapsed time: 0.246 seconds.

tnom = 27
temp = 27
method = modified trap
totiter = 2349
traniter = 2340
tranpoints = 1042
accept = 1042
rejected = 0
matrix size = 26
fillins = 2
solver = Normal
Avg thread counts: 3.5/6.7/5.9/3.5
Matrix Compiler1: 1.53 KB object code size  1.7/1.1/[1.1]
Matrix Compiler2: 2.08 KB object code size  1.0/1.5/[0.6]

