Circuit: * C:\Users\madha\Desktop\Audio-Amplifier\hardware_sim.asc

Warning: Multiple definitions of model "2scr375p" Type: BJT
Warning: Multiple definitions of model "bc857b" Type: BJT
Warning: Multiple definitions of model "bc847c" Type: BJT
Warning: Multiple definitions of model "bc847b" Type: BJT
WARNING: Less than two connections to node vin_inv.  This node is used by v4.
Direct Newton iteration for .op point succeeded.
N-Period=10
Fourier components of V(vout)
DC component:-0.00300111

Harmonic	Frequency	 Fourier 	Normalized	 Phase  	Normalized
 Number 	  [Hz]   	Component	 Component	[degree]	Phase [deg]
    1   	 1.000e+3	 1.798e-1	 1.000e+0	  -11.96°	    0.00°
    2   	 2.000e+3	 7.570e-2	 4.211e-1	    8.65°	   20.62°
    3   	 3.000e+3	 1.740e-1	 9.678e-1	    5.67°	   17.63°
    4   	 4.000e+3	 7.392e-2	 4.112e-1	   14.62°	   26.59°
    5   	 5.000e+3	 1.791e-1	 9.960e-1	   14.84°	   26.81°
    6   	 6.000e+3	 7.133e-2	 3.968e-1	   20.71°	   32.67°
    7   	 7.000e+3	 1.890e-1	 1.051e+0	   22.30°	   34.27°
    8   	 8.000e+3	 6.818e-2	 3.792e-1	   26.39°	   38.36°
    9   	 9.000e+3	 2.055e-1	 1.143e+0	   28.78°	   40.74°
   10   	 1.000e+4	 6.474e-2	 3.602e-1	   31.52°	   43.48°
Partial Harmonic Distortion: 226.243137%
Total Harmonic Distortion:   1416.498746%



Date: Sat Jan 25 17:13:44 2025
Total elapsed time: 0.299 seconds.

tnom = 27
temp = 27
method = modified trap
totiter = 2374
traniter = 2361
tranpoints = 1048
accept = 1046
rejected = 2
matrix size = 65
fillins = 57
solver = Normal
Avg thread counts: 3.5/6.6/6.1/3.5
Matrix Compiler1: 6.92 KB object code size  2.3/2.9/[1.0]
Matrix Compiler2: 6.44 KB object code size  1.4/3.3/[0.9]

