Circuit: * C:\Users\madha\Desktop\Audio-Amplifier\power_amplifier.asc

Warning: Multiple definitions of model "2scr375p" Type: BJT
Warning: Multiple definitions of model "bc857b" Type: BJT
Warning: Multiple definitions of model "bc847c" Type: BJT
Warning: Multiple definitions of model "bc847b" Type: BJT
Direct Newton iteration for .op point succeeded.

Date: Thu Jan  9 20:59:50 2025
Total elapsed time: 0.220 seconds.

tnom = 27
temp = 27
method = modified trap
totiter = 2090
traniter = 2082
tranpoints = 1042
accept = 1042
rejected = 0
matrix size = 17
fillins = 0
solver = Normal
Avg thread counts: 3.8/6.7/6.7/3.8
Matrix Compiler1: 1.01 KB object code size  1.0/1.3/[0.4]
Matrix Compiler2: 1.33 KB object code size  0.6/1.0/[0.6]

