Circuit: * C:\Users\madha\Desktop\Audio-Amplifier\pre_amp.asc

Warning: Multiple definitions of model "2scr375p" Type: BJT
Warning: Multiple definitions of model "bc857b" Type: BJT
Warning: Multiple definitions of model "bc847c" Type: BJT
Warning: Multiple definitions of model "bc847b" Type: BJT
Direct Newton iteration for .op point succeeded.

Date: Tue Jan  7 12:15:56 2025
Total elapsed time: 0.018 seconds.

tnom = 27
temp = 27
method = trap
totiter = 7
traniter = 0
tranpoints = 0
accept = 0
rejected = 0
matrix size = 16
fillins = 0
solver = Normal
Avg thread counts: 16.0/0.0/16.0/16.0
Matrix Compiler1:      47 opcodes
Matrix Compiler2: 1.20 KB object code size
