Circuit: * C:\Users\madha\Desktop\Audio-Amplifier\pre_amp.asc

Warning: Multiple definitions of model "2scr375p" Type: BJT
Warning: Multiple definitions of model "bc857b" Type: BJT
Warning: Multiple definitions of model "bc847c" Type: BJT
Warning: Multiple definitions of model "bc847b" Type: BJT
Direct Newton iteration for .op point succeeded.

Date: Thu Jan  9 16:33:42 2025
Total elapsed time: 0.077 seconds.

tnom = 27
temp = 27
method = modified trap
totiter = 2089
traniter = 2082
tranpoints = 1042
accept = 1042
rejected = 0
matrix size = 16
fillins = 0
solver = Normal
Avg thread counts: 3.8/6.7/6.7/3.8
Matrix Compiler1: 824 bytes object code size  0.2/0.1/[0.1]
Matrix Compiler2: 1.20 KB object code size  0.1/0.1/[0.1]

